data_AHIQAL-LC
_cell_length_a 12.834
_cell_length_b 11.595
_cell_length_c 17.123
_cell_angle_alpha 90
_cell_angle_beta 108.715
_cell_angle_gamma 90
_symmetry_space_group_name_H-M 'P 21/n'

loop_
_symmetry_equiv_pos_site_id
_symmetry_equiv_pos_as_xyz
1 x,y,z
2 1/2-x,1/2+y,1/2-z
3 -x,-y,-z
4 -1/2+x,-1/2-y,-1/2+z

loop_
_atom_site_label
_atom_site_type_symbol
_atom_site_fract_x
_atom_site_fract_y
_atom_site_fract_z
B1 B 0.72114 0.62218 -0.02446
C500 C 0.60852 0.68752 -0.03471
C1 C 0.55787 0.77735 -0.09136
C11 C 0.55712 0.68371 0.02368
C9 C 0.47363 0.77408 0.00844
C10 C 0.47818 0.82993 -0.06302
C501 C 0.57803 0.60760 0.08588
C12 C 0.65303 0.52667 0.08724
C502 C 0.71419 0.52017 0.03553
C21 C 0.78273 0.42062 0.05747
C13 C 0.68139 0.43078 0.14622
C22 C 0.76197 0.36857 0.12554
