
#######################################################################
#
#                 Cambridge Crystallographic Data Centre
#                                CCDC 
#
#######################################################################
#
# If this CIF has been generated from an entry in the Cambridge 
# Structural Database, then it will include bibliographic, chemical, 
# crystal, experimental, refinement or atomic coordinate data resulting 
# from the CCDC's data processing and validation procedures.
#
#######################################################################

data_1
_symmetry_cell_setting           monoclinic
_symmetry_space_group_name_H-M   'P 21/c'
_symmetry_Int_Tables_number      14
_space_group_name_Hall           '-P 2ybc'
loop_
_symmetry_equiv_pos_site_id
_symmetry_equiv_pos_as_xyz
1 x,y,z
2 -x,-y,-z
3 -x,1/2+y,1/2-z
4 x,1/2-y,1/2+z
_cell_length_a                   14.6736(6)
_cell_length_b                   14.8453(5)
_cell_length_c                   15.2727(6)
_cell_angle_alpha                90
_cell_angle_beta                 114.517(5)
_cell_angle_gamma                90
_cell_volume                     3026.95
loop_
_atom_site_label
_atom_site_type_symbol
_atom_site_fract_x
_atom_site_fract_y
_atom_site_fract_z
Cl1 Cl 0.88752(5) 0.59200(4) 0.61650(4)
C2 C 0.88001(19) 0.52914(15) 0.70944(16)
C3 C 0.78936(18) 0.52181(16) 0.71761(16)
N4 N 0.70155(15) 0.56775(14) 0.65718(13)
C5 C 0.64442(18) 0.55646(16) 0.56097(16)
C6 C 0.56160(18) 0.61619(16) 0.51432(16)
C7 C 0.50249(18) 0.60540(16) 0.41470(16)
N8 N 0.51982(16) 0.54009(14) 0.35925(14)
C9 C 0.59561(19) 0.48660(16) 0.40410(17)
C10 C 0.66087(18) 0.49029(16) 0.50362(16)
C11 C 0.73568(19) 0.42156(17) 0.53689(17)
N12 N 0.79267(18) 0.36309(16) 0.55630(17)
C13 C 0.42133(19) 0.66441(16) 0.36738(16)
C14 C 0.39870(18) 0.73260(16) 0.41494(16)
O15 O 0.32415(13) 0.79295(11) 0.37553(11)
C16 C 0.2638(2) 0.78573(18) 0.27341(17)
C17 C 0.1912(2) 0.86362(18) 0.24523(19)
C18 C 0.24490(19) 0.95378(17) 0.27312(18)
N19 N 0.17642(16) 1.03017(14) 0.23895(14)
C20 C 0.2193(2) 1.11143(17) 0.29507(18)
C21 C 0.1456(2) 1.18827(17) 0.26303(17)
N22 N 0.11691(17) 1.20886(14) 0.16059(14)
C23 C 0.0760(2) 1.12709(18) 0.10430(17)
C24 C 0.1501(2) 1.05004(18) 0.13710(17)
C25 C 0.0402(2) 1.27948(18) 0.12949(19)
C26 C 0.45857(18) 0.74358(16) 0.51630(16)
C27 C 0.53658(18) 0.68722(16) 0.56352(16)
O28 O 0.42899(13) 0.81388(11) 0.55589(11)
C29 C 0.4858(2) 0.82902(19) 0.65630(17)
C30 C 0.78759(18) 0.47378(16) 0.79587(16)
C31 C 0.87329(19) 0.43518(16) 0.86417(16)
O32 O 0.87810(13) 0.38610(13) 0.94126(12)
C33 C 0.7875(2) 0.3729(2) 0.9537(2)
C34 C 0.96310(19) 0.44554(17) 0.85374(16)
C35 C 0.96654(18) 0.49082(16) 0.77674(16)
Cl36 Cl 1.07276(5) 0.40267(5) 0.94150(4)
H91 H 0.6091 0.4413 0.3681
H131 H 0.3817 0.6552 0.3026
H161 H 0.3081 0.7873 0.2400
H162 H 0.2255 0.7290 0.2597
H171 H 0.1459 0.8574 0.2764
H172 H 0.1506 0.8613 0.1760
H181 H 0.2791 0.9565 0.3429
H182 H 0.2962 0.9587 0.2485
H201 H 0.2807 1.1292 0.2872
H202 H 0.2407 1.0998 0.3635
H212 H 0.1760 1.2429 0.2997
H211 H 0.0849 1.1713 0.2715
H232 H 0.0608 1.1415 0.0379
H231 H 0.0141 1.1089 0.1084
H242 H 0.2117 1.0654 0.1297
H241 H 0.1182 0.9969 0.0989
H252 H 0.0173 1.2888 0.0609
H251 H 0.0697 1.3347 0.1632
H253 H -0.0174 1.2608 0.1420
H271 H 0.5745 0.6961 0.6292
H293 H 0.4575 0.8822 0.6733
H291 H 0.5558 0.8388 0.6718
H292 H 0.4791 0.7767 0.6919
H301 H 0.7256 0.4675 0.7997
H333 H 0.8034 0.3329 1.0076
H331 H 0.7627 0.4303 0.9664
H332 H 0.7363 0.3453 0.8963
H351 H 1.0272 0.4966 0.7713
H41 H 0.6825 0.6084 0.6860
O37 O 0.70012(14) 0.69311(12) 0.79950(12)
C38 C 0.6866(2) 0.6627(2) 0.88216(19)
C39 C 0.7110(2) 0.73951(19) 0.95472(18)
C40 C 0.5841(3) 0.6238(2) 0.8496(2)
C41 C 0.5640(2) 0.5750(2) 0.9283(2)
H381 H 0.7363 0.6104 0.9154
H393 H 0.6973 0.7227 1.0094
H392 H 0.7806 0.7557 0.9765
H391 H 0.6678 0.7896 0.9224
H401 H 0.5749 0.5785 0.7981
H402 H 0.5339 0.6754 0.8237
H411 H 0.4973 0.5496 0.9010
H412 H 0.6114 0.5264 0.9547
H413 H 0.5692 0.6151 0.9802
H371 H 0.7523 0.7247 0.8187

#END
