data_ACSALA01
_cell_length_a 11.43
_cell_length_b 6.591
_cell_length_c 11.395
_cell_angle_alpha 90.0
_cell_angle_beta 95.68
_cell_angle_gamma 90.0
_symmetry_space_group_name_H-M  'P 21/c'

loop_
_symmetry_equiv_pos_site_id
_symmetry_equiv_pos_as_xyz
1 x,y,z
2 -x,1/2+y,1/2-z
3 -x,-y,-z
4 x,1/2-y,1/2+z

loop_
_atom_site_label
_atom_site_type_symbol
_atom_site_fract_x
_atom_site_fract_y
_atom_site_fract_z
C1 C 0.1534 0.564 0.0674
C2 C 0.2462 0.4877 0.0095
C3 C 0.2983 0.3047 0.0416
C4 C 0.2604 0.1961 0.1338
C5 C 0.1696 0.2676 0.1931
C6 C 0.1165 0.4496 0.1598
C7 C 0.0903 0.7573 0.0376
C8 C 0.3659 0.7384 -0.0637
C9 C 0.3974 0.8378 -0.1728
O1 O 0.1203 0.8603 -0.0508
O2 O 0.0104 0.8118 0.0965
O3 O 0.2857 0.5878 -0.088
O4 O 0.4036 0.7801 0.0345
H1 H 0.3616 0.2559 -0.0009
H2 H 0.2926 0.0651 0.1552
H3 H 0.14 0.1883 0.2554
H4 H 0.0528 0.4995 0.199
H5 H 0.456 0.941 -0.16
H6 H 0.3265 0.8883 -0.2139
H7 H 0.422 0.7389 -0.2266
H8 H 0.0737 0.9863 -0.0626
