data_ADRENL
_cell_length_a 7.873
_cell_length_b 6.79
_cell_length_c 8.638
_cell_angle_alpha 90.0
_cell_angle_beta 98.02
_cell_angle_gamma 90.0
_symmetry_space_group_name_H-M  'P 21'

loop_
_symmetry_equiv_pos_site_id
_symmetry_equiv_pos_as_xyz
1 x,y,z
2 -x,1/2+y,-z

loop_
_atom_site_label
_atom_site_type_symbol
_atom_site_fract_x
_atom_site_fract_y
_atom_site_fract_z
C1 C -0.1843 0.2055 0.413
C2 C -0.0908 0.2769 0.5509
C3 C -0.1391 0.239 0.6972
C4 C -0.2872 0.1266 0.7018
C5 C -0.3795 0.0504 0.5661
C6 C -0.3271 0.0904 0.4236
C7 C -0.132 0.2642 0.2585
C8 C -0.2396 0.4369 0.1924
C9 C -0.3124 0.6354 -0.049
H11 H -0.142 0.43 -0.014
H12 H -0.08 0.604 0.091
H2 H 0.006 0.348 0.549
H22 H -0.278 0.111 0.909
H23 H -0.083 0.034 0.169
H5 H -0.472 -0.026 0.571
H6 H -0.39 0.037 0.337
H7 H -0.006 0.306 0.272
H8 H -0.243 0.553 0.265
H81 H -0.359 0.396 0.169
H9 H -0.264 0.693 -0.138
H91 H -0.352 0.737 0.006
H92 H -0.403 0.55 -0.091
N1 N -0.1787 0.523 0.051
O1 O -0.0478 0.3012 0.8318
O2 O -0.3446 0.0876 0.8417
O3 O -0.1577 0.1137 0.1423
