data_BAPLOT01
_cell_length_a 24.612
_cell_length_b 3.8302
_cell_length_c 8.501
_cell_angle_alpha 90.0
_cell_angle_beta 90.0
_cell_angle_gamma 90.0
_symmetry_space_group_name_H-M  'P n a 21'

loop_
_symmetry_equiv_pos_site_id
_symmetry_equiv_pos_as_xyz
1 

loop_
_atom_site_label
_atom_site_type_symbol
_atom_site_fract_x
_atom_site_fract_y
_atom_site_fract_z
N1 N 0.90933 0.3795 0.7289
C2 C 0.9182 0.2581 0.574
N3 N 0.87764 0.3067 0.4677
C4 C 0.82936 0.4592 0.5151
C5 C 0.82219 0.5719 0.6641
C6 C 0.86184 0.5454 0.7865
N7 N 0.76965 0.7031 0.6688
C8 C 0.74988 0.6607 0.5249
N9 N 0.78433 0.5109 0.4275
C10 C 0.9538 0.323 0.8448
O11 O 0.96018 0.1045 0.5412
C12 C 0.8846 0.1913 0.3041
O13 O 0.85785 0.6411 0.92206
H7 H 0.752 0.8 0.751
H8 H 0.71 0.717 0.5
H10a H 0.984 0.208 0.794
H10b H 0.966 0.543 0.886
H10c H 0.941 0.179 0.929
H12a H 0.92 0.094 0.292
H12b H 0.858 0.019 0.279
H12c H 0.881 0.389 0.235
